
Version,
  8.8;                                    !- Version Identifier

LifeCycleCost:Parameters,
  {39f8e4bd-e6fa-4a0c-8403-64c292eb63f2}, !- Name
  EndOfYear,                              !- Discounting Convention
  ConstantDollar,                         !- Inflation Approach
  0.03,                                   !- Real Discount Rate
  ,                                       !- Nominal Discount Rate
  ,                                       !- Inflation
  ,                                       !- Base Date Month
  2011,                                   !- Base Date Year
  ,                                       !- Service Date Month
  2011,                                   !- Service Date Year
  25,                                     !- Length of Study Period in Years
  ,                                       !- Tax rate
  None;                                   !- Depreciation Method

LifeCycleCost:UsePriceEscalation,
  U.S. Avg  Commercial-Electricity,       !- LCC Price Escalation Name
  Electricity,                            !- Resource
  2011,                                   !- Escalation Start Year
  January,                                !- Escalation Start Month
  0.9838,                                 !- Year Escalation 1
  0.9730,                                 !- Year Escalation 2
  0.9632,                                 !- Year Escalation 3
  0.9611,                                 !- Year Escalation 4
  0.9571,                                 !- Year Escalation 5
  0.9553,                                 !- Year Escalation 6
  0.9539,                                 !- Year Escalation 7
  0.9521,                                 !- Year Escalation 8
  0.9546,                                 !- Year Escalation 9
  0.9550,                                 !- Year Escalation 10
  0.9553,                                 !- Year Escalation 11
  0.9564,                                 !- Year Escalation 12
  0.9575,                                 !- Year Escalation 13
  0.9596,                                 !- Year Escalation 14
  0.9618,                                 !- Year Escalation 15
  0.9614,                                 !- Year Escalation 16
  0.9618,                                 !- Year Escalation 17
  0.9618,                                 !- Year Escalation 18
  0.9593,                                 !- Year Escalation 19
  0.9589,                                 !- Year Escalation 20
  0.9607,                                 !- Year Escalation 21
  0.9625,                                 !- Year Escalation 22
  0.9650,                                 !- Year Escalation 23
  0.9708,                                 !- Year Escalation 24
  0.9751,                                 !- Year Escalation 25
  0.9762,                                 !- Year Escalation 26
  0.9766,                                 !- Year Escalation 27
  0.9766,                                 !- Year Escalation 28
  0.9769,                                 !- Year Escalation 29
  0.9773;                                 !- Year Escalation 30

LifeCycleCost:UsePriceEscalation,
  U.S. Avg  Commercial-Distillate Oil,    !- LCC Price Escalation Name
  FuelOil#1,                              !- Resource
  2011,                                   !- Escalation Start Year
  January,                                !- Escalation Start Month
  0.9714,                                 !- Year Escalation 1
  0.9730,                                 !- Year Escalation 2
  0.9942,                                 !- Year Escalation 3
  1.0164,                                 !- Year Escalation 4
  1.0541,                                 !- Year Escalation 5
  1.0928,                                 !- Year Escalation 6
  1.1267,                                 !- Year Escalation 7
  1.1580,                                 !- Year Escalation 8
  1.1792,                                 !- Year Escalation 9
  1.1967,                                 !- Year Escalation 10
  1.2200,                                 !- Year Escalation 11
  1.2333,                                 !- Year Escalation 12
  1.2566,                                 !- Year Escalation 13
  1.2709,                                 !- Year Escalation 14
  1.2826,                                 !- Year Escalation 15
  1.2985,                                 !- Year Escalation 16
  1.3102,                                 !- Year Escalation 17
  1.3250,                                 !- Year Escalation 18
  1.3261,                                 !- Year Escalation 19
  1.3282,                                 !- Year Escalation 20
  1.3324,                                 !- Year Escalation 21
  1.3356,                                 !- Year Escalation 22
  1.3431,                                 !- Year Escalation 23
  1.3510,                                 !- Year Escalation 24
  1.3568,                                 !- Year Escalation 25
  1.3606,                                 !- Year Escalation 26
  1.3637,                                 !- Year Escalation 27
  1.3674,                                 !- Year Escalation 28
  1.3706,                                 !- Year Escalation 29
  1.3743;                                 !- Year Escalation 30

LifeCycleCost:UsePriceEscalation,
  U.S. Avg  Commercial-Residual Oil,      !- LCC Price Escalation Name
  FuelOil#2,                              !- Resource
  2011,                                   !- Escalation Start Year
  January,                                !- Escalation Start Month
  0.8469,                                 !- Year Escalation 1
  0.8257,                                 !- Year Escalation 2
  0.8681,                                 !- Year Escalation 3
  0.8988,                                 !- Year Escalation 4
  0.9289,                                 !- Year Escalation 5
  0.9604,                                 !- Year Escalation 6
  0.9897,                                 !- Year Escalation 7
  1.0075,                                 !- Year Escalation 8
  1.0314,                                 !- Year Escalation 9
  1.0554,                                 !- Year Escalation 10
  1.0861,                                 !- Year Escalation 11
  1.1278,                                 !- Year Escalation 12
  1.1497,                                 !- Year Escalation 13
  1.1620,                                 !- Year Escalation 14
  1.1743,                                 !- Year Escalation 15
  1.1852,                                 !- Year Escalation 16
  1.1948,                                 !- Year Escalation 17
  1.2037,                                 !- Year Escalation 18
  1.2071,                                 !- Year Escalation 19
  1.2119,                                 !- Year Escalation 20
  1.2139,                                 !- Year Escalation 21
  1.2194,                                 !- Year Escalation 22
  1.2276,                                 !- Year Escalation 23
  1.2365,                                 !- Year Escalation 24
  1.2420,                                 !- Year Escalation 25
  1.2461,                                 !- Year Escalation 26
  1.2509,                                 !- Year Escalation 27
  1.2550,                                 !- Year Escalation 28
  1.2591,                                 !- Year Escalation 29
  1.2638;                                 !- Year Escalation 30

LifeCycleCost:UsePriceEscalation,
  U.S. Avg  Commercial-Natural gas,       !- LCC Price Escalation Name
  NaturalGas,                             !- Resource
  2011,                                   !- Escalation Start Year
  January,                                !- Escalation Start Month
  0.9823,                                 !- Year Escalation 1
  0.9557,                                 !- Year Escalation 2
  0.9279,                                 !- Year Escalation 3
  0.9257,                                 !- Year Escalation 4
  0.9346,                                 !- Year Escalation 5
  0.9412,                                 !- Year Escalation 6
  0.9512,                                 !- Year Escalation 7
  0.9645,                                 !- Year Escalation 8
  0.9856,                                 !- Year Escalation 9
  1.0067,                                 !- Year Escalation 10
  1.0222,                                 !- Year Escalation 11
  1.0410,                                 !- Year Escalation 12
  1.0610,                                 !- Year Escalation 13
  1.0787,                                 !- Year Escalation 14
  1.0942,                                 !- Year Escalation 15
  1.1098,                                 !- Year Escalation 16
  1.1220,                                 !- Year Escalation 17
  1.1308,                                 !- Year Escalation 18
  1.1386,                                 !- Year Escalation 19
  1.1486,                                 !- Year Escalation 20
  1.1619,                                 !- Year Escalation 21
  1.1763,                                 !- Year Escalation 22
  1.1918,                                 !- Year Escalation 23
  1.2118,                                 !- Year Escalation 24
  1.2284,                                 !- Year Escalation 25
  1.2439,                                 !- Year Escalation 26
  1.2605,                                 !- Year Escalation 27
  1.2772,                                 !- Year Escalation 28
  1.2938,                                 !- Year Escalation 29
  1.3115;                                 !- Year Escalation 30

LifeCycleCost:UsePriceEscalation,
  U.S. Avg  Commercial-Coal,              !- LCC Price Escalation Name
  Coal,                                   !- Resource
  2011,                                   !- Escalation Start Year
  January,                                !- Escalation Start Month
  0.9970,                                 !- Year Escalation 1
  1.0089,                                 !- Year Escalation 2
  1.0089,                                 !- Year Escalation 3
  0.9941,                                 !- Year Escalation 4
  0.9941,                                 !- Year Escalation 5
  1.0000,                                 !- Year Escalation 6
  1.0030,                                 !- Year Escalation 7
  1.0059,                                 !- Year Escalation 8
  1.0089,                                 !- Year Escalation 9
  1.0119,                                 !- Year Escalation 10
  1.0148,                                 !- Year Escalation 11
  1.0178,                                 !- Year Escalation 12
  1.0208,                                 !- Year Escalation 13
  1.0267,                                 !- Year Escalation 14
  1.0297,                                 !- Year Escalation 15
  1.0356,                                 !- Year Escalation 16
  1.0415,                                 !- Year Escalation 17
  1.0534,                                 !- Year Escalation 18
  1.0564,                                 !- Year Escalation 19
  1.0593,                                 !- Year Escalation 20
  1.0653,                                 !- Year Escalation 21
  1.0712,                                 !- Year Escalation 22
  1.0742,                                 !- Year Escalation 23
  1.0801,                                 !- Year Escalation 24
  1.0831,                                 !- Year Escalation 25
  1.0831,                                 !- Year Escalation 26
  1.0861,                                 !- Year Escalation 27
  1.0890,                                 !- Year Escalation 28
  1.0920,                                 !- Year Escalation 29
  1.0950;                                 !- Year Escalation 30

Building,
  Environment,                            !- Name
  0,                                      !- North Axis {deg}
  City,                                   !- Terrain
  0.04,                                   !- Loads Convergence Tolerance Value
  0.2,                                    !- Temperature Convergence Tolerance Value {deltaC}
  FullInteriorAndExterior,                !- Solar Distribution
  25,                                     !- Maximum Number of Warmup Days
  6;                                      !- Minimum Number of Warmup Days

Zone,
  Core_bottom ZN,                         !- Name
  0,                                      !- Direction of Relative North {deg}
  0,                                      !- X Origin {m}
  0,                                      !- Y Origin {m}
  0,                                      !- Z Origin {m}
  ,                                       !- Type
  ,                                       !- Multiplier
  ,                                       !- Ceiling Height {m}
  ,                                       !- Volume {m3}
  ,                                       !- Floor Area {m2}
  ,                                       !- Zone Inside Convection Algorithm
  ,                                       !- Zone Outside Convection Algorithm
  Yes;                                    !- Part of Total Floor Area

BuildingSurface:Detailed,
  Core_bot_ZN_5_Ceiling,                  !- Name
  Roof,                                   !- Surface Type
  Typical IEAD Roof R-20.83,              !- Construction Name
  Core_bottom ZN,                         !- Zone Name
  Outdoors,                               !- Outside Boundary Condition
  ,                                       !- Outside Boundary Condition Object
  SunExposed,                             !- Sun Exposure
  WindExposed,                            !- Wind Exposure
  ,                                       !- View Factor to Ground
  ,                                       !- Number of Vertices
  68.534, 4.5732, 2.744,                  !- X,Y,Z Vertex 1 {m}
  68.534, 44.165, 2.744,                  !- X,Y,Z Vertex 2 {m}
  5.4876, 44.165, 2.744,                  !- X,Y,Z Vertex 3 {m}
  5.4876, 4.5732, 2.744;                  !- X,Y,Z Vertex 4 {m}

BuildingSurface:Detailed,
  Core_bot_ZN_5_Floor,                    !- Name
  Floor,                                  !- Surface Type
  Typical Insulated Carpeted 6in Slab Floor, !- Construction Name
  Core_bottom ZN,                         !- Zone Name
  Ground,                                 !- Outside Boundary Condition
  ,                                       !- Outside Boundary Condition Object
  NoSun,                                  !- Sun Exposure
  NoWind,                                 !- Wind Exposure
  0,                                      !- View Factor to Ground
  ,                                       !- Number of Vertices
  68.534, 44.165, 0,                      !- X,Y,Z Vertex 1 {m}
  68.534, 4.5732, 0,                      !- X,Y,Z Vertex 2 {m}
  16.0782, 4.5732, 0,                     !- X,Y,Z Vertex 3 {m}
  16.0782, 44.165, 0;                     !- X,Y,Z Vertex 4 {m}

BuildingSurface:Detailed,
  Core_bot_ZN_5_Wall_East,                !- Name
  Wall,                                   !- Surface Type
  Typical Insulated Exterior Mass Wall R-9.62, !- Construction Name
  Core_bottom ZN,                         !- Zone Name
  Outdoors,                               !- Outside Boundary Condition
  ,                                       !- Outside Boundary Condition Object
  SunExposed,                             !- Sun Exposure
  WindExposed,                            !- Wind Exposure
  ,                                       !- View Factor to Ground
  ,                                       !- Number of Vertices
  68.534, 4.5732, 2.744,                  !- X,Y,Z Vertex 1 {m}
  68.534, 4.5732, 0,                      !- X,Y,Z Vertex 2 {m}
  68.534, 44.165, 0,                      !- X,Y,Z Vertex 3 {m}
  68.534, 44.165, 2.744;                  !- X,Y,Z Vertex 4 {m}

FenestrationSurface:Detailed,
  Sub Surface 2,                          !- Name
  Window,                                 !- Surface Type
  U 0.52 SHGC 0.40 Dbl Ref-D Clr 6mm/13mm Air, !- Construction Name
  Core_bot_ZN_5_Wall_East,                !- Building Surface Name
  ,                                       !- Outside Boundary Condition Object
  ,                                       !- View Factor to Ground
  ,                                       !- Shading Control Name
  ,                                       !- Frame and Divider Name
  ,                                       !- Multiplier
  ,                                       !- Number of Vertices
  68.534, 4.5986, 2.32808943992312,       !- X,Y,Z Vertex 1 {m}
  68.534, 4.5986, 0.762,                  !- X,Y,Z Vertex 2 {m}
  68.534, 44.1396, 0.762,                 !- X,Y,Z Vertex 3 {m}
  68.534, 44.1396, 2.32808943992312;      !- X,Y,Z Vertex 4 {m}

BuildingSurface:Detailed,
  Core_bot_ZN_5_Wall_North,               !- Name
  Wall,                                   !- Surface Type
  Typical Insulated Exterior Mass Wall R-9.62, !- Construction Name
  Core_bottom ZN,                         !- Zone Name
  Outdoors,                               !- Outside Boundary Condition
  ,                                       !- Outside Boundary Condition Object
  SunExposed,                             !- Sun Exposure
  WindExposed,                            !- Wind Exposure
  ,                                       !- View Factor to Ground
  ,                                       !- Number of Vertices
  68.534, 44.165, 2.744,                  !- X,Y,Z Vertex 1 {m}
  68.534, 44.165, 0,                      !- X,Y,Z Vertex 2 {m}
  5.4876, 44.165, 0,                      !- X,Y,Z Vertex 3 {m}
  5.4876, 44.165, 2.744;                  !- X,Y,Z Vertex 4 {m}

FenestrationSurface:Detailed,
  Sub Surface 3,                          !- Name
  Window,                                 !- Surface Type
  U 0.52 SHGC 0.40 Dbl Ref-D Clr 6mm/13mm Air, !- Construction Name
  Core_bot_ZN_5_Wall_North,               !- Building Surface Name
  ,                                       !- Outside Boundary Condition Object
  ,                                       !- View Factor to Ground
  ,                                       !- Shading Control Name
  ,                                       !- Frame and Divider Name
  ,                                       !- Multiplier
  ,                                       !- Number of Vertices
  68.5086, 44.165, 2.32734128275626,      !- X,Y,Z Vertex 1 {m}
  68.5086, 44.165, 0.762,                 !- X,Y,Z Vertex 2 {m}
  5.51300000000001, 44.165, 0.762,        !- X,Y,Z Vertex 3 {m}
  5.51300000000001, 44.165, 2.32734128275626; !- X,Y,Z Vertex 4 {m}

BuildingSurface:Detailed,
  Core_bot_ZN_5_Wall_South,               !- Name
  Wall,                                   !- Surface Type
  Typical Insulated Exterior Mass Wall R-9.62, !- Construction Name
  Core_bottom ZN,                         !- Zone Name
  Outdoors,                               !- Outside Boundary Condition
  ,                                       !- Outside Boundary Condition Object
  SunExposed,                             !- Sun Exposure
  WindExposed,                            !- Wind Exposure
  0,                                      !- View Factor to Ground
  ,                                       !- Number of Vertices
  5.4876, 4.5732, 2.744,                  !- X,Y,Z Vertex 1 {m}
  5.4876, 4.5732, 0,                      !- X,Y,Z Vertex 2 {m}
  68.534, 4.5732, 0,                      !- X,Y,Z Vertex 3 {m}
  68.534, 4.5732, 2.744;                  !- X,Y,Z Vertex 4 {m}

FenestrationSurface:Detailed,
  Sub Surface 1,                          !- Name
  Window,                                 !- Surface Type
  U 0.52 SHGC 0.40 Dbl Ref-D Clr 6mm/13mm Air, !- Construction Name
  Core_bot_ZN_5_Wall_South,               !- Building Surface Name
  ,                                       !- Outside Boundary Condition Object
  ,                                       !- View Factor to Ground
  ,                                       !- Shading Control Name
  ,                                       !- Frame and Divider Name
  ,                                       !- Multiplier
  ,                                       !- Number of Vertices
  5.513, 4.5732, 2.32734128275626,        !- X,Y,Z Vertex 1 {m}
  5.513, 4.5732, 0.762,                   !- X,Y,Z Vertex 2 {m}
  68.5086, 4.5732, 0.762,                 !- X,Y,Z Vertex 3 {m}
  68.5086, 4.5732, 2.32734128275626;      !- X,Y,Z Vertex 4 {m}

BuildingSurface:Detailed,
  Core_bot_ZN_5_Wall_West,                !- Name
  Wall,                                   !- Surface Type
  Typical Insulated Exterior Mass Wall R-9.62, !- Construction Name
  Core_bottom ZN,                         !- Zone Name
  Outdoors,                               !- Outside Boundary Condition
  ,                                       !- Outside Boundary Condition Object
  SunExposed,                             !- Sun Exposure
  WindExposed,                            !- Wind Exposure
  0,                                      !- View Factor to Ground
  ,                                       !- Number of Vertices
  5.4876, 44.165, 2.744,                  !- X,Y,Z Vertex 1 {m}
  5.4876, 44.165, 0,                      !- X,Y,Z Vertex 2 {m}
  5.4876, 4.5732, 0,                      !- X,Y,Z Vertex 3 {m}
  5.4876, 4.5732, 2.744;                  !- X,Y,Z Vertex 4 {m}

FenestrationSurface:Detailed,
  Sub Surface 4,                          !- Name
  Window,                                 !- Surface Type
  U 0.52 SHGC 0.40 Dbl Ref-D Clr 6mm/13mm Air, !- Construction Name
  Core_bot_ZN_5_Wall_West,                !- Building Surface Name
  ,                                       !- Outside Boundary Condition Object
  ,                                       !- View Factor to Ground
  ,                                       !- Shading Control Name
  ,                                       !- Frame and Divider Name
  ,                                       !- Multiplier
  ,                                       !- Number of Vertices
  5.4876, 44.1396, 2.32808943992312,      !- X,Y,Z Vertex 1 {m}
  5.4876, 44.1396, 0.762,                 !- X,Y,Z Vertex 2 {m}
  5.4876, 4.5986, 0.762,                  !- X,Y,Z Vertex 3 {m}
  5.4876, 4.5986, 2.32808943992312;       !- X,Y,Z Vertex 4 {m}

BuildingSurface:Detailed,
  DataCenter_basement_ZN_6_Ceiling-Core_bot_ZN_5-PPAutoCreateOther, !- Name
  Floor,                                  !- Surface Type
  Typical Insulated Carpeted 6in Slab Floor, !- Construction Name
  Core_bottom ZN,                         !- Zone Name
  Ground,                                 !- Outside Boundary Condition
  ,                                       !- Outside Boundary Condition Object
  NoSun,                                  !- Sun Exposure
  NoWind,                                 !- Wind Exposure
  0,                                      !- View Factor to Ground
  ,                                       !- Number of Vertices
  16.0782, 44.165, 0,                     !- X,Y,Z Vertex 1 {m}
  16.0782, 4.5732, 0,                     !- X,Y,Z Vertex 2 {m}
  5.4876, 4.5732, 0,                      !- X,Y,Z Vertex 3 {m}
  5.4876, 44.165, 0;                      !- X,Y,Z Vertex 4 {m}

InternalMass,
  Core_bottom Mass,                       !- Name
  InteriorFurnishings,                    !- Construction Name
  Core_bottom ZN,                         !- Zone Name
  4992.24091904;                          !- Surface Area {m2}

ZoneControl:Thermostat,
  Core_bottom ZN Thermostat,              !- Name
  Core_bottom ZN,                         !- Zone or ZoneList Name
  Core_bottom ZN Thermostat Schedule,     !- Control Type Schedule Name
  ThermostatSetpoint:DualSetpoint,        !- Control Object Type 1
  Office WholeBuilding - Lg Office Thermostat 1; !- Control Name 1

Schedule:Compact,
  Core_bottom ZN Thermostat Schedule,     !- Name
  Core_bottom ZN Thermostat Schedule Type Limits, !- Schedule Type Limits Name
  Through: 12/31,                         !- Field 1
  For: AllDays,                           !- Field 2
  Until: 24:00,                           !- Field 3
  4;                                      !- Field 4

ScheduleTypeLimits,
  Core_bottom ZN Thermostat Schedule Type Limits, !- Name
  0,                                      !- Lower Limit Value {BasedOnField A3}
  4,                                      !- Upper Limit Value {BasedOnField A3}
  DISCRETE;                               !- Numeric Type

ThermostatSetpoint:DualSetpoint,
  Office WholeBuilding - Lg Office Thermostat 1, !- Name
  OfficeLarge HTGSETP_SCH_YES_OPTIMUM,    !- Heating Setpoint Temperature Schedule Name
  OfficeLarge CLGSETP_SCH_NO_SETBACK;     !- Cooling Setpoint Temperature Schedule Name

ScheduleTypeLimits,
  Temperature 1,                          !- Name
  ,                                       !- Lower Limit Value {BasedOnField A3}
  ,                                       !- Upper Limit Value {BasedOnField A3}
  Continuous,                             !- Numeric Type
  temperature;                            !- Unit Type

Schedule:Day:Interval,
  OfficeLarge HTGSETP_SCH_YES_OPTIMUM Default, !- Name
  Temperature 1,                          !- Schedule Type Limits Name
  No,                                     !- Interpolate to Timestep
  24:00,                                  !- Time 1 {hh:mm}
  15.6;                                   !- Value Until Time 1

Schedule:Day:Interval,
  OfficeLarge HTGSETP_SCH_YES_OPTIMUM Wkdy Day, !- Name
  Temperature 1,                          !- Schedule Type Limits Name
  No,                                     !- Interpolate to Timestep
  04:00,                                  !- Time 1 {hh:mm}
  15.6,                                   !- Value Until Time 1
  05:00,                                  !- Time 2 {hh:mm}
  17.8,                                   !- Value Until Time 2
  06:00,                                  !- Time 3 {hh:mm}
  20,                                     !- Value Until Time 3
  22:00,                                  !- Time 4 {hh:mm}
  21,                                     !- Value Until Time 4
  24:00,                                  !- Time 5 {hh:mm}
  15.6;                                   !- Value Until Time 5

Schedule:Day:Interval,
  OfficeLarge HTGSETP_SCH_YES_OPTIMUM Sat Day, !- Name
  Temperature 1,                          !- Schedule Type Limits Name
  No,                                     !- Interpolate to Timestep
  04:00,                                  !- Time 1 {hh:mm}
  15.6,                                   !- Value Until Time 1
  05:00,                                  !- Time 2 {hh:mm}
  17.8,                                   !- Value Until Time 2
  06:00,                                  !- Time 3 {hh:mm}
  20,                                     !- Value Until Time 3
  17:00,                                  !- Time 4 {hh:mm}
  21,                                     !- Value Until Time 4
  24:00,                                  !- Time 5 {hh:mm}
  15.6;                                   !- Value Until Time 5

Schedule:Week:Daily,
  Schedule:Week:Daily {0e7a770f-7a75-4053-8800-c8f41c0bb59e}, !- Name
  OfficeLarge HTGSETP_SCH_YES_OPTIMUM Default, !- Sunday Schedule:Day Name
  OfficeLarge HTGSETP_SCH_YES_OPTIMUM Wkdy Day, !- Monday Schedule:Day Name
  OfficeLarge HTGSETP_SCH_YES_OPTIMUM Wkdy Day, !- Tuesday Schedule:Day Name
  OfficeLarge HTGSETP_SCH_YES_OPTIMUM Wkdy Day, !- Wednesday Schedule:Day Name
  OfficeLarge HTGSETP_SCH_YES_OPTIMUM Wkdy Day, !- Thursday Schedule:Day Name
  OfficeLarge HTGSETP_SCH_YES_OPTIMUM Wkdy Day, !- Friday Schedule:Day Name
  OfficeLarge HTGSETP_SCH_YES_OPTIMUM Sat Day, !- Saturday Schedule:Day Name
  OfficeLarge HTGSETP_SCH_YES_OPTIMUM Default, !- Holiday Schedule:Day Name
  OfficeLarge HTGSETP_SCH_YES_OPTIMUM Summer Design Day, !- SummerDesignDay Schedule:Day Name
  OfficeLarge HTGSETP_SCH_YES_OPTIMUM Winter Design Day, !- WinterDesignDay Schedule:Day Name
  OfficeLarge HTGSETP_SCH_YES_OPTIMUM Default, !- CustomDay1 Schedule:Day Name
  OfficeLarge HTGSETP_SCH_YES_OPTIMUM Default; !- CustomDay2 Schedule:Day Name

Schedule:Year,
  OfficeLarge HTGSETP_SCH_YES_OPTIMUM,    !- Name
  Temperature 1,                          !- Schedule Type Limits Name
  Schedule:Week:Daily {0e7a770f-7a75-4053-8800-c8f41c0bb59e}, !- Schedule:Week Name 1
  1,                                      !- Start Month 1
  1,                                      !- Start Day 1
  12,                                     !- End Month 1
  31;                                     !- End Day 1

Schedule:Day:Interval,
  OfficeLarge HTGSETP_SCH_YES_OPTIMUM Summer Design Day, !- Name
  Temperature 1,                          !- Schedule Type Limits Name
  No,                                     !- Interpolate to Timestep
  24:00,                                  !- Time 1 {hh:mm}
  15.6;                                   !- Value Until Time 1

Schedule:Day:Interval,
  OfficeLarge HTGSETP_SCH_YES_OPTIMUM Winter Design Day, !- Name
  Temperature 1,                          !- Schedule Type Limits Name
  No,                                     !- Interpolate to Timestep
  05:00,                                  !- Time 1 {hh:mm}
  15.6,                                   !- Value Until Time 1
  06:00,                                  !- Time 2 {hh:mm}
  17.6,                                   !- Value Until Time 2
  07:00,                                  !- Time 3 {hh:mm}
  19.6,                                   !- Value Until Time 3
  22:00,                                  !- Time 4 {hh:mm}
  21,                                     !- Value Until Time 4
  24:00,                                  !- Time 5 {hh:mm}